PGE_Models/GLD Simulation Primary/GLD Simulation Primary/D0001/D0001_glmfile_ts.glm
//
//********************************
// A demonstration of cyme xml to Gridlab-D input
// created by: Vaibhav Donde
//

clock{
	timestamp '2000-07-17 0:00:00';
	stoptime '2000-07-18 0:00:00';
}
#set profiler=1


//********************************
// modules
//********************************
module tape;
module powerflow{
	solver_method FBS;
	default_maximum_voltage_error 1e-9;
};

//*********************************************
// Conductor Objects
//*********************************************
// OHCond_1/0_AAC_I
object overhead_line_conductor {
	name OHCond_1/0_AAC_I;
	resistance 0.8820750323;
	geometric_mean_radius 0.0110971584;
	diameter 0.367999264;
}

// OHCond_2_ACSR_I
object overhead_line_conductor {
	name OHCond_2_ACSR_I;
	resistance 1.3505631832;
	geometric_mean_radius 0.060464504;
	diameter 0.32499935;
}

// OHCond_715_AAC_I
object overhead_line_conductor {
	name OHCond_715_AAC_I;
	resistance 0.1324968876;
	geometric_mean_radius 0.0311920128;
	diameter 0.972998054;
}

// OHCond_NONE
object overhead_line_conductor {
	name OHCond_NONE;
	resistance 0.0;
	geometric_mean_radius 0.0;
	diameter 0.0;
}

// OHCond_4/0_ACSR_I
object overhead_line_conductor {
	name OHCond_4/0_ACSR_I;
	resistance 0.4287883292;
	geometric_mean_radius 0.0976549808;
	diameter 0.562998874;
}

// OHCond_4_ACSR_I
object overhead_line_conductor {
	name OHCond_4_ACSR_I;
	resistance 2.1715395317;
	geometric_mean_radius 0.0524265688;
	diameter 0.2499995;
}

// OHCond_6_CU_I
object overhead_line_conductor {
	name OHCond_6_CU_I;
	resistance 2.2113584416;
	geometric_mean_radius 0.00525866;
	diameter 0.161999676;
}

// OHCond_DEFAULT
object overhead_line_conductor {
	name OHCond_DEFAULT;
	resistance 0.27792611;
	geometric_mean_radius 0.01667552;
	diameter 0.52799107;
}

// OHCond_4A_CW_I
object overhead_line_conductor {
	name OHCond_4A_CW_I;
	resistance 1.3949621609;
	geometric_mean_radius 0.0060384472;
	diameter 0.28999942;
}

// OHCond_4/0_AAC_I
object overhead_line_conductor {
	name OHCond_4/0_AAC_I;
	resistance 0.4406874934;
	geometric_mean_radius 0.015765976;
	diameter 0.521998956;
}

// OHCond_4_CU_I
object overhead_line_conductor {
	name OHCond_4_CU_I;
	resistance 1.4181103321;
	geometric_mean_radius 0.006998208;
	diameter 0.231999536;
}

// OHCond_397_AAC_I
object overhead_line_conductor {
	name OHCond_397_AAC_I;
	resistance 0.2354936969;
	geometric_mean_radius 0.0227941632;
	diameter 0.722998554;
}

// UGCable_1/0_AL_PEC_22KV_3P
object underground_line_conductor {
	name UGCable_1/0_AL_PEC_22KV_3P;
	outer_diameter 0.669290518897;
	conductor_gmr 0.01667552;
	conductor_diameter 0.52799107;
	conductor_resistance 0.27792611;
	neutral_gmr 0.01667552;
	neutral_resistance 0.27792611;
	neutral_diameter 0.52799107;
	neutral_strands 2;
}

// UGCable_1000_AL_XLP-PVC_22KV_3P
object underground_line_conductor {
	name UGCable_1000_AL_XLP-PVC_22KV_3P;
	outer_diameter 0.6692917;
	conductor_gmr 0.01667552;
	conductor_diameter 0.52799107;
	conductor_resistance 0.27792611;
	neutral_gmr 0.01667552;
	neutral_resistance 0.27792611;
	neutral_diameter 0.52799107;
	neutral_strands 2;
}

// UGCable_4_CU_P&L_15KV_3P
object underground_line_conductor {
	name UGCable_4_CU_P&L_15KV_3P;
	outer_diameter 0.669290518897;
	conductor_gmr 0.01667552;
	conductor_diameter 0.52799107;
	conductor_resistance 0.27792611;
	neutral_gmr 0.01667552;
	neutral_resistance 0.27792611;
	neutral_diameter 0.52799107;
	neutral_strands 2;
}

// UGCable_2_AL_XLP-CONC-PVC_22KV_3P
object underground_line_conductor {
	name UGCable_2_AL_XLP-CONC-PVC_22KV_3P;
	outer_diameter 0.6692917;
	conductor_gmr 0.01667552;
	conductor_diameter 0.52799107;
	conductor_resistance 0.27792611;
	neutral_gmr 0.01667552;
	neutral_resistance 0.27792611;
	neutral_diameter 0.52799107;
	neutral_strands 2;
}

// UGCable_1100_AL_EPR-CONC-ENCAP-PE_3P
object underground_line_conductor {
	name UGCable_1100_AL_EPR-CONC-ENCAP-PE_3P;
	outer_diameter 0.6692917;
	conductor_gmr 0.01667552;
	conductor_diameter 0.52799107;
	conductor_resistance 0.27792611;
	neutral_gmr 0.01667552;
	neutral_resistance 0.27792611;
	neutral_diameter 0.52799107;
	neutral_strands 2;
}

// UGCable_1/0_AL_XLP-CONC-PVC_22KV_3P
object underground_line_conductor {
	name UGCable_1/0_AL_XLP-CONC-PVC_22KV_3P;
	outer_diameter 0.669290518897;
	conductor_gmr 0.01667552;
	conductor_diameter 0.52799107;
	conductor_resistance 0.27792611;
	neutral_gmr 0.01667552;
	neutral_resistance 0.27792611;
	neutral_diameter 0.52799107;
	neutral_strands 2;
}

// UGCable_750_CU_1C_XLP-PVC_15KV_3P
object underground_line_conductor {
	name UGCable_750_CU_1C_XLP-PVC_15KV_3P;
	outer_diameter 0.6692917;
	conductor_gmr 0.01667552;
	conductor_diameter 0.52799107;
	conductor_resistance 0.27792611;
	neutral_gmr 0.01667552;
	neutral_resistance 0.27792611;
	neutral_diameter 0.52799107;
	neutral_strands 2;
}

// UGCable_2_AL_PEC_22KV_3P
object underground_line_conductor {
	name UGCable_2_AL_PEC_22KV_3P;
	outer_diameter 0.669290518897;
	conductor_gmr 0.01667552;
	conductor_diameter 0.52799107;
	conductor_resistance 0.27792611;
	neutral_gmr 0.01667552;
	neutral_resistance 0.27792611;
	neutral_diameter 0.52799107;
	neutral_strands 2;
}

// UGCable_1/0_AL_XLP-CONC-CIC_22KV_2P
object underground_line_conductor {
	name UGCable_1/0_AL_XLP-CONC-CIC_22KV_2P;
	outer_diameter 0.669290518897;
	conductor_gmr 0.01667552;
	conductor_diameter 0.52799107;
	conductor_resistance 0.27792611;
	neutral_gmr 0.01667552;
	neutral_resistance 0.27792611;
	neutral_diameter 0.52799107;
	neutral_strands 2;
}

// UGCable_700_AL_XLP-CONC-PVC_22KV_3P
object underground_line_conductor {
	name UGCable_700_AL_XLP-CONC-PVC_22KV_3P;
	outer_diameter 0.6692917;
	conductor_gmr 0.01667552;
	conductor_diameter 0.52799107;
	conductor_resistance 0.27792611;
	neutral_gmr 0.01667552;
	neutral_resistance 0.27792611;
	neutral_diameter 0.52799107;
	neutral_strands 2;
}

// UGCable_2_AL_XLP-CONC-CIC_22KV_2P
object underground_line_conductor {
	name UGCable_2_AL_XLP-CONC-CIC_22KV_2P;
	outer_diameter 0.669290518897;
	conductor_gmr 0.01667552;
	conductor_diameter 0.52799107;
	conductor_resistance 0.27792611;
	neutral_gmr 0.01667552;
	neutral_resistance 0.27792611;
	neutral_diameter 0.52799107;
	neutral_strands 2;
}

// UGCable_1/0_AL_EPR-CONC-ENCAP-PE_3P
object underground_line_conductor {
	name UGCable_1/0_AL_EPR-CONC-ENCAP-PE_3P;
	outer_diameter 0.669290518897;
	conductor_gmr 0.01667552;
	conductor_diameter 0.52799107;
	conductor_resistance 0.27792611;
	neutral_gmr 0.01667552;
	neutral_resistance 0.27792611;
	neutral_diameter 0.52799107;
	neutral_strands 2;
}

// UGCable_1/0_AL_XLP-PVC_22KV_3P
object underground_line_conductor {
	name UGCable_1/0_AL_XLP-PVC_22KV_3P;
	outer_diameter 0.669290518897;
	conductor_gmr 0.01667552;
	conductor_diameter 0.52799107;
	conductor_resistance 0.27792611;
	neutral_gmr 0.01667552;
	neutral_resistance 0.27792611;
	neutral_diameter 0.52799107;
	neutral_strands 2;
}

// UGCable_1000_AL_XLP-CONC-PVC_22KV_3P
object underground_line_conductor {
	name UGCable_1000_AL_XLP-CONC-PVC_22KV_3P;
	outer_diameter 0.669290518897;
	conductor_gmr 0.01667552;
	conductor_diameter 0.52799107;
	conductor_resistance 0.27792611;
	neutral_gmr 0.01667552;
	neutral_resistance 0.27792611;
	neutral_diameter 0.52799107;
	neutral_strands 2;
}

// UGCable_2_AL_XLP-PVC_22KV_3P
object underground_line_conductor {
	name UGCable_2_AL_XLP-PVC_22KV_3P;
	outer_diameter 0.6692917;
	conductor_gmr 0.01667552;
	conductor_diameter 0.52799107;
	conductor_resistance 0.27792611;
	neutral_gmr 0.01667552;
	neutral_resistance 0.27792611;
	neutral_diameter 0.52799107;
	neutral_strands 2;
}

// UGCable_2_CU_PEC_22KV_2P
object underground_line_conductor {
	name UGCable_2_CU_PEC_22KV_2P;
	outer_diameter 0.669290518897;
	conductor_gmr 0.01667552;
	conductor_diameter 0.52799107;
	conductor_resistance 0.27792611;
	neutral_gmr 0.01667552;
	neutral_resistance 0.27792611;
	neutral_diameter 0.52799107;
	neutral_strands 2;
}

// UGCable_4/0_AL_XLP-CONC-PVC_22KV_3P
object underground_line_conductor {
	name UGCable_4/0_AL_XLP-CONC-PVC_22KV_3P;
	outer_diameter 0.669290518897;
	conductor_gmr 0.01667552;
	conductor_diameter 0.52799107;
	conductor_resistance 0.27792611;
	neutral_gmr 0.01667552;
	neutral_resistance 0.27792611;
	neutral_diameter 0.52799107;
	neutral_strands 2;
}

// UGCable_DEFAULT
object underground_line_conductor {
	name UGCable_DEFAULT;
	outer_diameter 0.6692917;
	conductor_gmr 0.01667552;
	conductor_diameter 0.52799107;
	conductor_resistance 0.27792611;
	neutral_gmr 0.01667552;
	neutral_resistance 0.27792611;
	neutral_diameter 0.52799107;
	neutral_strands 2;
}

// UGCable_4_CU_P&L_15KV_2P
object underground_line_conductor {
	name UGCable_4_CU_P&L_15KV_2P;
	outer_diameter 0.669290518897;
	conductor_gmr 0.01667552;
	conductor_diameter 0.52799107;
	conductor_resistance 0.27792611;
	neutral_gmr 0.01667552;
	neutral_resistance 0.27792611;
	neutral_diameter 0.52799107;
	neutral_strands 2;
}

// UGCable_700_AL_XLP-CONC-PVC_22KV_3P&N
object underground_line_conductor {
	name UGCable_700_AL_XLP-CONC-PVC_22KV_3P&N;
	outer_diameter 0.6692917;
	conductor_gmr 0.01667552;
	conductor_diameter 0.52799107;
	conductor_resistance 0.27792611;
	neutral_gmr 0.01667552;
	neutral_resistance 0.27792611;
	neutral_diameter 0.52799107;
	neutral_strands 2;
}

// UGCable_4/0_AL_XLP-CONC-CIC_22KV_2P
object underground_line_conductor {
	name UGCable_4/0_AL_XLP-CONC-CIC_22KV_2P;
	outer_diameter 0.669290518897;
	conductor_gmr 0.01667552;
	conductor_diameter 0.52799107;
	conductor_resistance 0.27792611;
	neutral_gmr 0.01667552;
	neutral_resistance 0.27792611;
	neutral_diameter 0.52799107;
	neutral_strands 2;
}

// UGCable_1/0_AL_PEC_22KV_2P
object underground_line_conductor {
	name UGCable_1/0_AL_PEC_22KV_2P;
	outer_diameter 0.669290518897;
	conductor_gmr 0.01667552;
	conductor_diameter 0.52799107;
	conductor_resistance 0.27792611;
	neutral_gmr 0.01667552;
	neutral_resistance 0.27792611;
	neutral_diameter 0.52799107;
	neutral_strands 2;
}

// UGCable_1/0_AL_XLP-CONC-PVC_22KV_2P
object underground_line_conductor {
	name UGCable_1/0_AL_XLP-CONC-PVC_22KV_2P;
	outer_diameter 0.669290518897;
	conductor_gmr 0.01667552;
	conductor_diameter 0.52799107;
	conductor_resistance 0.27792611;
	neutral_gmr 0.01667552;
	neutral_resistance 0.27792611;
	neutral_diameter 0.52799107;
	neutral_strands 2;
}

// UGCable_1/0_AL_XLP-CON-ENCP-PE_15KV_2P
object underground_line_conductor {
	name UGCable_1/0_AL_XLP-CON-ENCP-PE_15KV_2P;
	outer_diameter 0.669290518897;
	conductor_gmr 0.01667552;
	conductor_diameter 0.52799107;
	conductor_resistance 0.27792611;
	neutral_gmr 0.01667552;
	neutral_resistance 0.27792611;
	neutral_diameter 0.52799107;
	neutral_strands 2;
}

// UGCable_350_AL_XLP-CONC-PVC_22KV_3P&N
object underground_line_conductor {
	name UGCable_350_AL_XLP-CONC-PVC_22KV_3P&N;
	outer_diameter 0.6692917;
	conductor_gmr 0.01667552;
	conductor_diameter 0.52799107;
	conductor_resistance 0.27792611;
	neutral_gmr 0.01667552;
	neutral_resistance 0.27792611;
	neutral_diameter 0.52799107;
	neutral_strands 2;
}

// UGCable_1100_AL_EPR-CONC-ENCAP-PE_3P&N
object underground_line_conductor {
	name UGCable_1100_AL_EPR-CONC-ENCAP-PE_3P&N;
	outer_diameter 0.6692917;
	conductor_gmr 0.01667552;
	conductor_diameter 0.52799107;
	conductor_resistance 0.27792611;
	neutral_gmr 0.01667552;
	neutral_resistance 0.27792611;
	neutral_diameter 0.52799107;
	neutral_strands 2;
}

// UGCable_2_AL_PEC_22KV_2P
object underground_line_conductor {
	name UGCable_2_AL_PEC_22KV_2P;
	outer_diameter 0.669290518897;
	conductor_gmr 0.01667552;
	conductor_diameter 0.52799107;
	conductor_resistance 0.27792611;
	neutral_gmr 0.01667552;
	neutral_resistance 0.27792611;
	neutral_diameter 0.52799107;
	neutral_strands 2;
}

// UGCable_1/0_AL_EPR-CONC-ENCAP-PE_2P
object underground_line_conductor {
	name UGCable_1/0_AL_EPR-CONC-ENCAP-PE_2P;
	outer_diameter 0.669290518897;
	conductor_gmr 0.01667552;
	conductor_diameter 0.52799107;
	conductor_resistance 0.27792611;
	neutral_gmr 0.01667552;
	neutral_resistance 0.27792611;
	neutral_diameter 0.52799107;
	neutral_strands 2;
}

// UGCable_2_AL_XLP-CONC-CIC_22KV_3P
object underground_line_conductor {
	name UGCable_2_AL_XLP-CONC-CIC_22KV_3P;
	outer_diameter 0.669290518897;
	conductor_gmr 0.01667552;
	conductor_diameter 0.52799107;
	conductor_resistance 0.27792611;
	neutral_gmr 0.01667552;
	neutral_resistance 0.27792611;
	neutral_diameter 0.52799107;
	neutral_strands 2;
}

// UGCable_350_AL_XLP-PVC_22KV_3P&N
object underground_line_conductor {
	name UGCable_350_AL_XLP-PVC_22KV_3P&N;
	outer_diameter 0.6692917;
	conductor_gmr 0.01667552;
	conductor_diameter 0.52799107;
	conductor_resistance 0.27792611;
	neutral_gmr 0.01667552;
	neutral_resistance 0.27792611;
	neutral_diameter 0.52799107;
	neutral_strands 2;
}

// UGCable_1/0_AL_XLP-CONC-CIC_22KV_3P
object underground_line_conductor {
	name UGCable_1/0_AL_XLP-CONC-CIC_22KV_3P;
	outer_diameter 0.669290518897;
	conductor_gmr 0.01667552;
	conductor_diameter 0.52799107;
	conductor_resistance 0.27792611;
	neutral_gmr 0.01667552;
	neutral_resistance 0.27792611;
	neutral_diameter 0.52799107;
	neutral_strands 2;
}

// UGCable_600_AL_EPR-CONC-ENCAP-PE_3P
object underground_line_conductor {
	name UGCable_600_AL_EPR-CONC-ENCAP-PE_3P;
	outer_diameter 0.669290518897;
	conductor_gmr 0.01667552;
	conductor_diameter 0.52799107;
	conductor_resistance 0.27792611;
	neutral_gmr 0.01667552;
	neutral_resistance 0.27792611;
	neutral_diameter 0.52799107;
	neutral_strands 2;
}

// UGCable_4/0_AL_XLP-PVC_22KV_3P
object underground_line_conductor {
	name UGCable_4/0_AL_XLP-PVC_22KV_3P;
	outer_diameter 0.6692917;
	conductor_gmr 0.01667552;
	conductor_diameter 0.52799107;
	conductor_resistance 0.27792611;
	neutral_gmr 0.01667552;
	neutral_resistance 0.27792611;
	neutral_diameter 0.52799107;
	neutral_strands 2;
}

//*********************************************
// Line spacing objects
//*********************************************
// OHSpacing_VERTICAL_3P_52
object line_spacing {
	name OHSpacing_VERTICAL_3P_52;
	distance_AB 4.3332773592;
	distance_BC 4.3332773592;
	distance_AC 4.3332773592;
	distance_AN 4.3332773592;
	distance_BN 4.3332773592;
	distance_CN 4.3332773592;
}

// OHSpacing_TRIANGULAR_3P_52
object line_spacing {
	name OHSpacing_TRIANGULAR_3P_52;
	distance_AB 4.3332773592;
	distance_BC 4.3332773592;
	distance_AC 4.3332773592;
	distance_AN 6.6665888808;
	distance_BN 6.6665888808;
	distance_CN 6.6665888808;
}

// UGSpacing_2_AL_XLP-CONC-CIC_22KV_3P
object line_spacing {
	name UGSpacing_2_AL_XLP-CONC-CIC_22KV_3P;
	distance_AB 0.147636;
	distance_BC 0.147636;
	distance_AC 0.295272;
}

// UGSpacing_1/0_AL_PEC_22KV_3P
object line_spacing {
	name UGSpacing_1/0_AL_PEC_22KV_3P;
	distance_AB 0.147636;
	distance_BC 0.147636;
	distance_AC 0.295272;
}

// OHSpacing_HORIZONTAL_2P_88
object line_spacing {
	name OHSpacing_HORIZONTAL_2P_88;
	distance_AB 7.3332408792;
	distance_BC 7.3332408792;
	distance_AC 7.3332408792;
	distance_AN 9.9998784;
	distance_BN 9.9998784;
	distance_CN 9.9998784;
}

// UGSpacing_1/0_AL_XLP-CONC-PVC_22KV_2P
object line_spacing {
	name UGSpacing_1/0_AL_XLP-CONC-PVC_22KV_2P;
	distance_AB 0.147636;
	distance_BC 0.0;
	distance_AC 0.0;
}

// UGSpacing_1/0_AL_XLP-CON-ENCP-PE_15KV_2P
object line_spacing {
	name UGSpacing_1/0_AL_XLP-CON-ENCP-PE_15KV_2P;
	distance_AB 0.147636;
	distance_BC 0.0;
	distance_AC 0.0;
}

// UGSpacing_1100_AL_EPR-CONC-ENCAP-PE_3P&N
object line_spacing {
	name UGSpacing_1100_AL_EPR-CONC-ENCAP-PE_3P&N;
	distance_AB 0.147636;
	distance_BC 0.147636;
	distance_AC 0.295272;
}

// UGSpacing_1000_AL_XLP-PVC_22KV_3P
object line_spacing {
	name UGSpacing_1000_AL_XLP-PVC_22KV_3P;
	distance_AB 0.147636;
	distance_BC 0.147636;
	distance_AC 0.295272;
}

// UGSpacing_1000_AL_XLP-CONC-PVC_22KV_3P
object line_spacing {
	name UGSpacing_1000_AL_XLP-CONC-PVC_22KV_3P;
	distance_AB 0.147636;
	distance_BC 0.147636;
	distance_AC 0.295272;
}

// UGSpacing_4/0_AL_XLP-CONC-PVC_22KV_3P
object line_spacing {
	name UGSpacing_4/0_AL_XLP-CONC-PVC_22KV_3P;
	distance_AB 0.147636;
	distance_BC 0.147636;
	distance_AC 0.295272;
}

// OHSpacing_TRIANGULAR_2P_52
object line_spacing {
	name OHSpacing_TRIANGULAR_2P_52;
	distance_AB 4.33328064;
	distance_BC 4.33328064;
	distance_AC 4.33328064;
	distance_AN 4.3332773592;
	distance_BN 4.3332773592;
	distance_CN 4.3332773592;
}

// UGSpacing_4/0_AL_XLP-CONC-CIC_22KV_2P
object line_spacing {
	name UGSpacing_4/0_AL_XLP-CONC-CIC_22KV_2P;
	distance_AB 0.147636;
	distance_BC 0.0;
	distance_AC 0.0;
}

// UGSpacing_1/0_AL_EPR-CONC-ENCAP-PE_3P
object line_spacing {
	name UGSpacing_1/0_AL_EPR-CONC-ENCAP-PE_3P;
	distance_AB 0.147636;
	distance_BC 0.147636;
	distance_AC 0.295272;
}

// OHSpacing_HORIZONTAL_2P_72
object line_spacing {
	name OHSpacing_HORIZONTAL_2P_72;
	distance_AB 5.99992704;
	distance_BC 5.99992704;
	distance_AC 5.99992704;
	distance_AN 8.1599007744;
	distance_BN 8.1599007744;
	distance_CN 8.1599007744;
}

// UGSpacing_2_AL_PEC_22KV_3P
object line_spacing {
	name UGSpacing_2_AL_PEC_22KV_3P;
	distance_AB 0.147636;
	distance_BC 0.147636;
	distance_AC 0.295272;
}

// OHSpacing_HORIZONTAL_2P_56
object line_spacing {
	name OHSpacing_HORIZONTAL_2P_56;
	distance_AB 4.66660992;
	distance_BC 4.66660992;
	distance_AC 4.66660992;
	distance_AN 6.99991488;
	distance_BN 6.99991488;
	distance_CN 6.99991488;
}

// OHSpacing_HORIZONTAL_2P_52
object line_spacing {
	name OHSpacing_HORIZONTAL_2P_52;
	distance_AB 4.3332773592;
	distance_BC 4.3332773592;
	distance_AC 4.3332773592;
	distance_AN 6.6665888808;
	distance_BN 6.6665888808;
	distance_CN 6.6665888808;
}

// UGSpacing_2_CU_PEC_22KV_2P
object line_spacing {
	name UGSpacing_2_CU_PEC_22KV_2P;
	distance_AB 0.147636;
	distance_BC 0.0;
	distance_AC 0.0;
}

// OHSpacing_TRIANGULAR_3P_30
object line_spacing {
	name OHSpacing_TRIANGULAR_3P_30;
	distance_AB 2.4999696;
	distance_BC 2.4999696;
	distance_AC 2.4999696;
	distance_AN 4.9999392;
	distance_BN 4.9999392;
	distance_CN 4.9999392;
}

// UGSpacing_750_CU_1C_XLP-PVC_15KV_3P
object line_spacing {
	name UGSpacing_750_CU_1C_XLP-PVC_15KV_3P;
	distance_AB 0.147636;
	distance_BC 0.147636;
	distance_AC 0.295272;
}

// UGSpacing_4_CU_P&L_15KV_2P
object line_spacing {
	name UGSpacing_4_CU_P&L_15KV_2P;
	distance_AB 0.147636;
	distance_BC 0.0;
	distance_AC 0.0;
}

// UGSpacing_DEFAULT
object line_spacing {
	name UGSpacing_DEFAULT;
	distance_AB 0.147636;
	distance_BC 0.147636;
	distance_AC 0.295272;
}

// UGSpacing_4/0_AL_XLP-PVC_22KV_3P
object line_spacing {
	name UGSpacing_4/0_AL_XLP-PVC_22KV_3P;
	distance_AB 0.147636;
	distance_BC 0.147636;
	distance_AC 0.295272;
}

// UGSpacing_1/0_AL_PEC_22KV_2P
object line_spacing {
	name UGSpacing_1/0_AL_PEC_22KV_2P;
	distance_AB 0.147636;
	distance_BC 0.0;
	distance_AC 0.0;
}

// UGSpacing_1/0_AL_XLP-CONC-CIC_22KV_2P
object line_spacing {
	name UGSpacing_1/0_AL_XLP-CONC-CIC_22KV_2P;
	distance_AB 0.147636;
	distance_BC 0.0;
	distance_AC 0.0;
}

// UGSpacing_350_AL_XLP-PVC_22KV_3P&N
object line_spacing {
	name UGSpacing_350_AL_XLP-PVC_22KV_3P&N;
	distance_AB 0.147636;
	distance_BC 0.147636;
	distance_AC 0.295272;
}

// UGSpacing_2_AL_XLP-CONC-CIC_22KV_2P
object line_spacing {
	name UGSpacing_2_AL_XLP-CONC-CIC_22KV_2P;
	distance_AB 0.147636;
	distance_BC 0.0;
	distance_AC 0.0;
}

// OHSpacing_HORIZONTAL_3P_52
object line_spacing {
	name OHSpacing_HORIZONTAL_3P_52;
	distance_AB 4.3332773592;
	distance_BC 4.3332773592;
	distance_AC 4.3332773592;
	distance_AN 6.6665888808;
	distance_BN 6.6665888808;
	distance_CN 6.6665888808;
}

// UGSpacing_1/0_AL_XLP-CONC-PVC_22KV_3P
object line_spacing {
	name UGSpacing_1/0_AL_XLP-CONC-PVC_22KV_3P;
	distance_AB 0.147636;
	distance_BC 0.147636;
	distance_AC 0.295272;
}

// UGSpacing_600_AL_EPR-CONC-ENCAP-PE_3P
object line_spacing {
	name UGSpacing_600_AL_EPR-CONC-ENCAP-PE_3P;
	distance_AB 0.147636;
	distance_BC 0.147636;
	distance_AC 0.295272;
}

// UGSpacing_2_AL_XLP-PVC_22KV_3P
object line_spacing {
	name UGSpacing_2_AL_XLP-PVC_22KV_3P;
	distance_AB 0.147636;
	distance_BC 0.147636;
	distance_AC 0.295272;
}

// UGSpacing_350_AL_XLP-CONC-PVC_22KV_3P&N
object line_spacing {
	name UGSpacing_350_AL_XLP-CONC-PVC_22KV_3P&N;
	distance_AB 0.147636;
	distance_BC 0.147636;
	distance_AC 0.295272;
}

// UGSpacing_2_AL_XLP-CONC-PVC_22KV_3P
object line_spacing {
	name UGSpacing_2_AL_XLP-CONC-PVC_22KV_3P;
	distance_AB 0.147636;
	distance_BC 0.147636;
	distance_AC 0.295272;
}

// UGSpacing_1/0_AL_EPR-CONC-ENCAP-PE_2P
object line_spacing {
	name UGSpacing_1/0_AL_EPR-CONC-ENCAP-PE_2P;
	distance_AB 0.147636;
	distance_BC 0.0;
	distance_AC 0.0;
}

// UGSpacing_1/0_AL_XLP-PVC_22KV_3P
object line_spacing {
	name UGSpacing_1/0_AL_XLP-PVC_22KV_3P;
	distance_AB 0.147636;
	distance_BC 0.147636;
	distance_AC 0.295272;
}

// UGSpacing_1100_AL_EPR-CONC-ENCAP-PE_3P
object line_spacing {
	name UGSpacing_1100_AL_EPR-CONC-ENCAP-PE_3P;
	distance_AB 0.147636;
	distance_BC 0.147636;
	distance_AC 0.295272;
}

// UGSpacing_700_AL_XLP-CONC-PVC_22KV_3P&N
object line_spacing {
	name UGSpacing_700_AL_XLP-CONC-PVC_22KV_3P&N;
	distance_AB 0.147636;
	distance_BC 0.147636;
	distance_AC 0.295272;
}

// UGSpacing_4_CU_P&L_15KV_3P
object line_spacing {
	name UGSpacing_4_CU_P&L_15KV_3P;
	distance_AB 0.147636;
	distance_BC 0.147636;
	distance_AC 0.295272;
}

// UGSpacing_2_AL_PEC_22KV_2P
object line_spacing {
	name UGSpacing_2_AL_PEC_22KV_2P;
	distance_AB 0.147636;
	distance_BC 0.0;
	distance_AC 0.0;
}

// UGSpacing_700_AL_XLP-CONC-PVC_22KV_3P
object line_spacing {
	name UGSpacing_700_AL_XLP-CONC-PVC_22KV_3P;
	distance_AB 0.147636;
	distance_BC 0.147636;
	distance_AC 0.295272;
}

// UGSpacing_1/0_AL_XLP-CONC-CIC_22KV_3P
object line_spacing {
	name UGSpacing_1/0_AL_XLP-CONC-CIC_22KV_3P;
	distance_AB 0.147636;
	distance_BC 0.147636;
	distance_AC 0.295272;
}

//*********************************************
// Line Config objects
//*********************************************
// L_300011644_LineConfig
object line_configuration {
	name L_300011644_LineConfig;
	conductor_A OHCond_397_AAC_I;
	conductor_B OHCond_397_AAC_I;
	conductor_C OHCond_397_AAC_I;
	conductor_N OHCond_NONE;
	spacing OHSpacing_HORIZONTAL_3P_52;
}

// L_300015127_LineConfig
object line_configuration {
	name L_300015127_LineConfig;
	conductor_A OHCond_715_AAC_I;
	conductor_B OHCond_715_AAC_I;
	conductor_C OHCond_715_AAC_I;
	conductor_N OHCond_NONE;
	spacing OHSpacing_HORIZONTAL_3P_52;
}

// L_300084973_LineConfig
object line_configuration {
	name L_300084973_LineConfig;
	conductor_A OHCond_6_CU_I;
	conductor_B OHCond_6_CU_I;
	conductor_C OHCond_NONE;
	conductor_N OHCond_NONE;
	spacing OHSpacing_HORIZONTAL_2P_56;
}

// L_300030648_LineConfig
object line_configuration {
	name L_300030648_LineConfig;
	conductor_A OHCond_397_AAC_I;
	conductor_B OHCond_397_AAC_I;
	conductor_C OHCond_397_AAC_I;
	conductor_N OHCond_NONE;
	spacing OHSpacing_HORIZONTAL_3P_52;
}

// L_300084792_LineConfig
object line_configuration {
	name L_300084792_LineConfig;
	conductor_A OHCond_6_CU_I;
	conductor_B OHCond_6_CU_I;
	conductor_C OHCond_NONE;
	conductor_N OHCond_NONE;
	spacing OHSpacing_HORIZONTAL_2P_52;
}

// L_300013989_LineConfig
object line_configuration {
	name L_300013989_LineConfig;
	conductor_A OHCond_4/0_AAC_I;
	conductor_B OHCond_4/0_AAC_I;
	conductor_C OHCond_4/0_AAC_I;
	conductor_N OHCond_NONE;
	spacing OHSpacing_HORIZONTAL_3P_52;
}

// L_300084812_LineConfig
object line_configuration {
	name L_300084812_LineConfig;
	conductor_A OHCond_NONE;
	conductor_B OHCond_4_ACSR_I;
	conductor_C OHCond_4_ACSR_I;
	conductor_N OHCond_NONE;
	spacing OHSpacing_HORIZONTAL_2P_56;
}

// L_300009871_LineConfig
object line_configuration {
	name L_300009871_LineConfig;
	conductor_A OHCond_715_AAC_I;
	conductor_B OHCond_715_AAC_I;
	conductor_C OHCond_715_AAC_I;
	conductor_N OHCond_NONE;
	spacing OHSpacing_HORIZONTAL_3P_52;
}

// L_300084847_LineConfig
object line_configuration {
	name L_300084847_LineConfig;
	conductor_A OHCond_6_CU_I;
	conductor_B OHCond_6_CU_I;
	conductor_C OHCond_NONE;
	conductor_N OHCond_NONE;
	spacing OHSpacing_HORIZONTAL_2P_56;
}

// L_300084747_LineConfig
object line_configuration {
	name L_300084747_LineConfig;
	conductor_A OHCond_4/0_AAC_I;
	conductor_B OHCond_4/0_AAC_I;
	conductor_C OHCond_4/0_AAC_I;
	conductor_N OHCond_NONE;
	spacing OHSpacing_HORIZONTAL_3P_52;
}

// L_300084850_LineConfig
object line_configuration {
	name L_300084850_LineConfig;
	conductor_A OHCond_6_CU_I;
	conductor_B OHCond_6_CU_I;
	conductor_C OHCond_NONE;
	conductor_N OHCond_NONE;
	spacing OHSpacing_HORIZONTAL_2P_56;
}

// L_300030022_LineConfig
object line_configuration {
	name L_300030022_LineConfig;
	conductor_A OHCond_715_AAC_I;
	conductor_B OHCond_715_AAC_I;
	conductor_C OHCond_715_AAC_I;
	conductor_N OHCond_NONE;
	spacing OHSpacing_HORIZONTAL_3P_52;
}

// L_300084721_LineConfig
object line_configuration {
	name L_300084721_LineConfig;
	conductor_A OHCond_4_ACSR_I;
	conductor_B OHCond_4_ACSR_I;
	conductor_C OHCond_4_ACSR_I;
	conductor_N OHCond_NONE;
	spacing OHSpacing_HORIZONTAL_3P_52;
}

// L_300015040_LineConfig
object line_configuration {
	name L_300015040_LineConfig;
	conductor_A OHCond_4_ACSR_I;
	conductor_B OHCond_4_ACSR_I;
	conductor_C OHCond_4_ACSR_I;
	conductor_N OHCond_NONE;
	spacing OHSpacing_HORIZONTAL_3P_52;
}

// L_300115284_LineConfig
object line_configuration {
	name L_300115284_LineConfig;
	conductor_A OHCond_397_AAC_I;
	conductor_B OHCond_397_AAC_I;
	conductor_C OHCond_397_AAC_I;
	conductor_N OHCond_NONE;
	spacing OHSpacing_HORIZONTAL_3P_52;
}

// L_300084715_LineConfig
object line_configuration {
	name L_300084715_LineConfig;
	conductor_A OHCond_397_AAC_I;
	conductor_B OHCond_397_AAC_I;
	conductor_C OHCond_397_AAC_I;
	conductor_N OHCond_NONE;
	spacing OHSpacing_HORIZONTAL_3P_52;
}

// L_300053020_LineConfig
object line_configuration {
	name L_300053020_LineConfig;
	conductor_A OHCond_6_CU_I;
	conductor_B OHCond_6_CU_I;
	conductor_C OHCond_6_CU_I;
	conductor_N OHCond_NONE;
	spacing OHSpacing_HORIZONTAL_3P_52;
}

// L_300005523_LineConfig
object line_configuration {
	name L_300005523_LineConfig;
	conductor_A OHCond_397_AAC_I;
	conductor_B OHCond_397_AAC_I;
	conductor_C OHCond_397_AAC_I;
	conductor_N OHCond_NONE;
	spacing OHSpacing_HORIZONTAL_3P_52;
}

// L_300084968_LineConfig
object line_configuration {
	name L_300084968_LineConfig;
	conductor_A OHCond_6_CU_I;
	conductor_B OHCond_6_CU_I;
	conductor_C OHCond_NONE;
	conductor_N OHCond_NONE;
	spacing OHSpacing_HORIZONTAL_2P_52;
}

// L_300084795_LineConfig
object line_configuration {
	name L_300084795_LineConfig;
	conductor_A OHCond_6_CU_I;
	conductor_B OHCond_6_CU_I;
	conductor_C OHCond_NONE;
	conductor_N OHCond_NONE;
	spacing OHSpacing_HORIZONTAL_2P_52;
}

// L_300115312_LineConfig
object line_configuration {
	name L_300115312_LineConfig;
	conductor_A OHCond_4_ACSR_I;
	conductor_B OHCond_4_ACSR_I;
	conductor_C OHCond_4_ACSR_I;
	conductor_N OHCond_NONE;
	spacing OHSpacing_HORIZONTAL_3P_52;
}

// L_300084852_LineConfig
object line_configuration {
	name L_300084852_LineConfig;
	conductor_A OHCond_397_AAC_I;
	conductor_B OHCond_397_AAC_I;
	conductor_C OHCond_397_AAC_I;
	conductor_N OHCond_NONE;
	spacing OHSpacing_HORIZONTAL_3P_52;
}

// L_300011641_LineConfig
object line_configuration {
	name L_300011641_LineConfig;
	conductor_A OHCond_397_AAC_I;
	conductor_B OHCond_397_AAC_I;
	conductor_C OHCond_397_AAC_I;
	conductor_N OHCond_NONE;
	spacing OHSpacing_HORIZONTAL_3P_52;
}

// L_300013986_LineConfig
object line_configuration {
	name L_300013986_LineConfig;
	conductor_A OHCond_4/0_AAC_I;
	conductor_B OHCond_4/0_AAC_I;
	conductor_C OHCond_4/0_AAC_I;
	conductor_N OHCond_NONE;
	spacing OHSpacing_HORIZONTAL_3P_52;
}

// L_300084840_LineConfig
object line_configuration {
	name L_300084840_LineConfig;
	conductor_A OHCond_4/0_AAC_I;
	conductor_B OHCond_4/0_AAC_I;
	conductor_C OHCond_4/0_AAC_I;
	conductor_N OHCond_NONE;
	spacing OHSpacing_HORIZONTAL_3P_52;
}

// L_300084806_LineConfig
object line_configuration {
	name L_300084806_LineConfig;
	conductor_A OHCond_NONE;
	conductor_B OHCond_4_ACSR_I;
	conductor_C OHCond_4_ACSR_I;
	conductor_N OHCond_NONE;
	spacing OHSpacing_HORIZONTAL_2P_56;
}

// L_300084800_LineConfig
object line_configuration {
	name L_300084800_LineConfig;
	conductor_A OHCond_397_AAC_I;
	conductor_B OHCond_397_AAC_I;
	conductor_C OHCond_397_AAC_I;
	conductor_N OHCond_NONE;
	spacing OHSpacing_HORIZONTAL_3P_52;
}

// L_300084731_LineConfig
object line_configuration {
	name L_300084731_LineConfig;
	conductor_A OHCond_397_AAC_I;
	conductor_B OHCond_397_AAC_I;
	conductor_C OHCond_397_AAC_I;
	conductor_N OHCond_NONE;
	spacing OHSpacing_HORIZONTAL_3P_52;
}

// L_300084965_LineConfig
object line_configuration {
	name L_300084965_LineConfig;
	conductor_A OHCond_6_CU_I;
	conductor_B OHCond_6_CU_I;
	conductor_C OHCond_6_CU_I;
	conductor_N OHCond_NONE;
	spacing OHSpacing_HORIZONTAL_3P_52;
}

// L_300084694_LineConfig
object line_configuration {
	name L_300084694_LineConfig;
	conductor_A OHCond_4_ACSR_I;
	conductor_B OHCond_4_ACSR_I;
	conductor_C OHCond_NONE;
	conductor_N OHCond_NONE;
	spacing OHSpacing_HORIZONTAL_2P_52;
}

// L_300115313_LineConfig
object line_configuration {
	name L_300115313_LineConfig;
	conductor_A OHCond_4/0_AAC_I;
	conductor_B OHCond_4/0_AAC_I;
	conductor_C OHCond_4/0_AAC_I;
	conductor_N OHCond_NONE;
	spacing OHSpacing_HORIZONTAL_3P_52;
}

// L_300084842_LineConfig
object line_configuration {
	name L_300084842_LineConfig;
	conductor_A OHCond_397_AAC_I;
	conductor_B OHCond_397_AAC_I;
	conductor_C OHCond_397_AAC_I;
	conductor_N OHCond_NONE;
	spacing OHSpacing_HORIZONTAL_3P_52;
}

// L_300084803_LineConfig
object line_configuration {
	name L_300084803_LineConfig;
	conductor_A OHCond_4_ACSR_I;
	conductor_B OHCond_4_ACSR_I;
	conductor_C OHCond_NONE;
	conductor_N OHCond_NONE;
	spacing OHSpacing_HORIZONTAL_2P_52;
}

// L_300084853_LineConfig
object line_configuration {
	name L_300084853_LineConfig;
	conductor_A OHCond_6_CU_I;
	conductor_B OHCond_6_CU_I;
	conductor_C OHCond_NONE;
	conductor_N OHCond_NONE;
	spacing OHSpacing_HORIZONTAL_2P_52;
}

// L_300084868_LineConfig
object line_configuration {
	name L_300084868_LineConfig;
	conductor_A OHCond_4_ACSR_I;
	conductor_B OHCond_4_ACSR_I;
	conductor_C OHCond_NONE;
	conductor_N OHCond_NONE;
	spacing OHSpacing_TRIANGULAR_2P_52;
}

// L_300084741_LineConfig
object line_configuration {
	name L_300084741_LineConfig;
	conductor_A OHCond_4/0_AAC_I;
	conductor_B OHCond_4/0_AAC_I;
	conductor_C OHCond_4/0_AAC_I;
	conductor_N OHCond_NONE;
	spacing OHSpacing_HORIZONTAL_3P_52;
}

// L_300013988_LineConfig
object line_configuration {
	name L_300013988_LineConfig;
	conductor_A OHCond_4/0_AAC_I;
	conductor_B OHCond_4/0_AAC_I;
	conductor_C OHCond_4/0_AAC_I;
	conductor_N OHCond_NONE;
	spacing OHSpacing_HORIZONTAL_3P_52;
}

// L_300036172_LineConfig
object line_configuration {
	name L_300036172_LineConfig;
	conductor_A OHCond_4_ACSR_I;
	conductor_B OHCond_4_ACSR_I;
	conductor_C OHCond_NONE;
	conductor_N OHCond_NONE;
	spacing OHSpacing_HORIZONTAL_2P_56;
}

// L_300027836_LineConfig
object line_configuration {
	name L_300027836_LineConfig;
	conductor_A OHCond_6_CU_I;
	conductor_B OHCond_6_CU_I;
	conductor_C OHCond_6_CU_I;
	conductor_N OHCond_NONE;
	spacing OHSpacing_HORIZONTAL_3P_52;
}

// L_300013984_LineConfig
object line_configuration {
	name L_300013984_LineConfig;
	conductor_A OHCond_4/0_AAC_I;
	conductor_B OHCond_4/0_AAC_I;
	conductor_C OHCond_4/0_AAC_I;
	conductor_N OHCond_NONE;
	spacing OHSpacing_HORIZONTAL_3P_52;
}

// L_300005525_LineConfig
object line_configuration {
	name L_300005525_LineConfig;
	conductor_A OHCond_397_AAC_I;
	conductor_B OHCond_397_AAC_I;
	conductor_C OHCond_397_AAC_I;
	conductor_N OHCond_NONE;
	spacing OHSpacing_HORIZONTAL_3P_52;
}

// L_300085324_LineConfig
object line_configuration {
	name L_300085324_LineConfig;
	conductor_A OHCond_715_AAC_I;
	conductor_B OHCond_715_AAC_I;
	conductor_C OHCond_715_AAC_I;
	conductor_N OHCond_NONE;
	spacing OHSpacing_HORIZONTAL_3P_52;
}

// L_300099157_LineConfig
object line_configuration {
	name L_300099157_LineConfig;
	conductor_A OHCond_397_AAC_I;
	conductor_B OHCond_397_AAC_I;
	conductor_C OHCond_397_AAC_I;
	conductor_N OHCond_NONE;
	spacing OHSpacing_HORIZONTAL_3P_52;
}

// L_300014206_LineConfig
object line_configuration {
	name L_300014206_LineConfig;
	conductor_A OHCond_397_AAC_I;
	conductor_B OHCond_397_AAC_I;
	conductor_C OHCond_397_AAC_I;
	conductor_N OHCond_NONE;
	spacing OHSpacing_TRIANGULAR_3P_52;
}

// L_300084788_LineConfig
object line_configuration {
	name L_300084788_LineConfig;
	conductor_A OHCond_397_AAC_I;
	conductor_B OHCond_397_AAC_I;
	conductor_C OHCond_397_AAC_I;
	conductor_N OHCond_NONE;
	spacing OHSpacing_HORIZONTAL_3P_52;
}

// L_300084804_LineConfig
object line_configuration {
	name L_300084804_LineConfig;
	conductor_A OHCond_NONE;
	conductor_B OHCond_6_CU_I;
	conductor_C OHCond_6_CU_I;
	conductor_N OHCond_NONE;
	spacing OHSpacing_HORIZONTAL_2P_56;
}

// L_300085281_LineConfig
object line_configuration {
	name L_300085281_LineConfig;
	conductor_A OHCond_6_CU_I;
	conductor_B OHCond_6_CU_I;
	conductor_C OHCond_6_CU_I;
	conductor_N OHCond_NONE;
	spacing OHSpacing_HORIZONTAL_3P_52;
}

// L_300121093_LineConfig
object line_configuration {
	name L_300121093_LineConfig;
	conductor_A OHCond_715_AAC_I;
	conductor_B OHCond_715_AAC_I;
	conductor_C OHCond_715_AAC_I;
	conductor_N OHCond_NONE;
	spacing OHSpacing_HORIZONTAL_3P_52;
}

// L_300051647_LineConfig
object line_configuration {
	name L_300051647_LineConfig;
	conductor_A OHCond_715_AAC_I;
	conductor_B OHCond_715_AAC_I;
	conductor_C OHCond_715_AAC_I;
	conductor_N OHCond_NONE;
	spacing OHSpacing_HORIZONTAL_3P_52;
}

// L_300018416_LineConfig
object line_configuration {
	name L_300018416_LineConfig;
	conductor_A OHCond_6_CU_I;
	conductor_B OHCond_6_CU_I;
	conductor_C OHCond_NONE;
	conductor_N OHCond_NONE;
	spacing OHSpacing_HORIZONTAL_2P_56;
}

// L_300052954_LineConfig
object line_configuration {
	name L_300052954_LineConfig;
	conductor_A OHCond_715_AAC_I;
	conductor_B OHCond_715_AAC_I;
	conductor_C OHCond_715_AAC_I;
	conductor_N OHCond_NONE;
	spacing OHSpacing_HORIZONTAL_3P_52;
}

// L_300084730_LineConfig
object line_configuration {
	name L_300084730_LineConfig;
	conductor_A OHCond_397_AAC_I;
	conductor_B OHCond_397_AAC_I;
	conductor_C OHCond_397_AAC_I;
	conductor_N OHCond_NONE;
	spacing OHSpacing_HORIZONTAL_3P_52;
}

// L_300015033_LineConfig
object line_configuration {
	name L_300015033_LineConfig;
	conductor_A OHCond_397_AAC_I;
	conductor_B OHCond_397_AAC_I;
	conductor_C OHCond_397_AAC_I;
	conductor_N OHCond_NONE;
	spacing OHSpacing_HORIZONTAL_3P_52;
}

// L_300015044_LineConfig
object line_configuration {
	name L_300015044_LineConfig;
	conductor_A OHCond_4_ACSR_I;
	conductor_B OHCond_4_ACSR_I;
	conductor_C OHCond_4_ACSR_I;
	conductor_N OHCond_NONE;
	spacing OHSpacing_HORIZONTAL_3P_52;
}

// L_300015126_LineConfig
object line_configuration {
	name L_300015126_LineConfig;
	conductor_A OHCond_4/0_AAC_I;
	conductor_B OHCond_4/0_AAC_I;
	conductor_C OHCond_4/0_AAC_I;
	conductor_N OHCond_NONE;
	spacing OHSpacing_HORIZONTAL_3P_52;
}

// L_300009867_LineConfig
object line_configuration {
	name L_300009867_LineConfig;
	conductor_A OHCond_4/0_AAC_I;
	conductor_B OHCond_4/0_AAC_I;
	conductor_C OHCond_4/0_AAC_I;
	conductor_N OHCond_NONE;
	spacing OHSpacing_HORIZONTAL_3P_52;
}

// L_300084796_LineConfig
object line_configuration {
	name L_300084796_LineConfig;
	conductor_A OHCond_6_CU_I;
	conductor_B OHCond_6_CU_I;
	conductor_C OHCond_NONE;
	conductor_N OHCond_NONE;
	spacing OHSpacing_HORIZONTAL_2P_52;
}

// L_300084790_LineConfig
object line_configuration {
	name L_300084790_LineConfig;
	conductor_A OHCond_4_ACSR_I;
	conductor_B OHCond_4_ACSR_I;
	conductor_C OHCond_NONE;
	conductor_N OHCond_NONE;
	spacing OHSpacing_HORIZONTAL_2P_56;
}

// L_300097447_LineConfig
object line_configuration {
	name L_300097447_LineConfig;
	conductor_A OHCond_4_ACSR_I;
	conductor_B OHCond_4_ACSR_I;
	conductor_C OHCond_NONE;
	conductor_N OHCond_NONE;
	spacing OHSpacing_HORIZONTAL_2P_56;
}

// L_300084722_LineConfig
object line_configuration {
	name L_300084722_LineConfig;
	conductor_A OHCond_4_ACSR_I;
	conductor_B OHCond_4_ACSR_I;
	conductor_C OHCond_4_ACSR_I;
	conductor_N OHCond_NONE;
	spacing OHSpacing_HORIZONTAL_3P_52;
}

// L_300085276_LineConfig
object line_configuration {
	name L_300085276_LineConfig;
	conductor_A OHCond_6_CU_I;
	conductor_B OHCond_6_CU_I;
	conductor_C OHCond_6_CU_I;
	conductor_N OHCond_NONE;
	spacing OHSpacing_HORIZONTAL_3P_52;
}

// L_300011636_LineConfig
object line_configuration {
	name L_300011636_LineConfig;
	conductor_A OHCond_4/0_AAC_I;
	conductor_B OHCond_4/0_AAC_I;
	conductor_C OHCond_4/0_AAC_I;
	conductor_N OHCond_NONE;
	spacing OHSpacing_HORIZONTAL_3P_52;
}

// L_300084967_LineConfig
object line_configuration {
	name L_300084967_LineConfig;
	conductor_A OHCond_6_CU_I;
	conductor_B OHCond_6_CU_I;
	conductor_C OHCond_6_CU_I;
	conductor_N OHCond_NONE;
	spacing OHSpacing_HORIZONTAL_3P_52;
}

// L_300115282_LineConfig
object line_configuration {
	name L_300115282_LineConfig;
	conductor_A OHCond_397_AAC_I;
	conductor_B OHCond_397_AAC_I;
	conductor_C OHCond_397_AAC_I;
	conductor_N OHCond_NONE;
	spacing OHSpacing_HORIZONTAL_3P_52;
}

// L_300084966_LineConfig
object line_configuration {
	name L_300084966_LineConfig;
	conductor_A OHCond_6_CU_I;
	conductor_B OHCond_6_CU_I;
	conductor_C OHCond_6_CU_I;
	conductor_N OHCond_NONE;
	spacing OHSpacing_HORIZONTAL_3P_52;
}

// L_300084793_LineConfig
object line_configuration {
	name L_300084793_LineConfig;
	conductor_A OHCond_6_CU_I;
	conductor_B OHCond_6_CU_I;
	conductor_C OHCond_NONE;
	conductor_N OHCond_NONE;
	spacing OHSpacing_HORIZONTAL_2P_52;
}

// L_300085280_LineConfig
object line_configuration {
	name L_300085280_LineConfig;
	conductor_A OHCond_6_CU_I;
	conductor_B OHCond_6_CU_I;
	conductor_C OHCond_6_CU_I;
	conductor_N OHCond_NONE;
	spacing OHSpacing_HORIZONTAL_3P_52;
}

// L_300084983_LineConfig
object line_configuration {
	name L_300084983_LineConfig;
	conductor_A OHCond_715_AAC_I;
	conductor_B OHCond_715_AAC_I;
	conductor_C OHCond_715_AAC_I;
	conductor_N OHCond_NONE;
	spacing OHSpacing_HORIZONTAL_3P_52;
}

// L_300084817_LineConfig
object line_configuration {
	name L_300084817_LineConfig;
	conductor_A OHCond_NONE;
	conductor_B OHCond_6_CU_I;
	conductor_C OHCond_6_CU_I;
	conductor_N OHCond_NONE;
	spacing OHSpacing_HORIZONTAL_2P_56;
}

// L_300015043_LineConfig
object line_configuration {
	name L_300015043_LineConfig;
	conductor_A OHCond_397_AAC_I;
	conductor_B OHCond_397_AAC_I;
	conductor_C OHCond_397_AAC_I;
	conductor_N OHCond_NONE;
	spacing OHSpacing_HORIZONTAL_3P_52;
}

// L_300084810_LineConfig
object line_configuration {
	name L_300084810_LineConfig;
	conductor_A OHCond_NONE;
	conductor_B OHCond_4_ACSR_I;
	conductor_C OHCond_4_ACSR_I;
	conductor_N OHCond_NONE;
	spacing OHSpacing_HORIZONTAL_2P_56;
}

// L_300084737_LineConfig
object line_configuration {
	name L_300084737_LineConfig;
	conductor_A OHCond_4/0_AAC_I;
	conductor_B OHCond_4/0_AAC_I;
	conductor_C OHCond_4/0_AAC_I;
	conductor_N OHCond_NONE;
	spacing OHSpacing_HORIZONTAL_3P_52;
}

// L_300008645_LineConfig
object line_configuration {
	name L_300008645_LineConfig;
	conductor_A OHCond_6_CU_I;
	conductor_B OHCond_6_CU_I;
	conductor_C OHCond_NONE;
	conductor_N OHCond_NONE;
	spacing OHSpacing_HORIZONTAL_2P_56;
}

// L_300084750_LineConfig
object line_configuration {
	name L_300084750_LineConfig;
	conductor_A OHCond_4/0_AAC_I;
	conductor_B OHCond_4/0_AAC_I;
	conductor_C OHCond_4/0_AAC_I;
	conductor_N OHCond_NONE;
	spacing OHSpacing_HORIZONTAL_3P_52;
}

// L_300115310_LineConfig
object line_configuration {
	name L_300115310_LineConfig;
	conductor_A OHCond_397_AAC_I;
	conductor_B OHCond_397_AAC_I;
	conductor_C OHCond_397_AAC_I;
	conductor_N OHCond_NONE;
	spacing OHSpacing_HORIZONTAL_3P_52;
}

// L_300013876_LineConfig
object line_configuration {
	name L_300013876_LineConfig;
	conductor_A OHCond_4/0_AAC_I;
	conductor_B OHCond_4/0_AAC_I;
	conductor_C OHCond_4/0_AAC_I;
	conductor_N OHCond_NONE;
	spacing OHSpacing_HORIZONTAL_3P_52;
}

// L_300015037_LineConfig
object line_configuration {
	name L_300015037_LineConfig;
	conductor_A OHCond_4_ACSR_I;
	conductor_B OHCond_4_ACSR_I;
	conductor_C OHCond_4_ACSR_I;
	conductor_N OHCond_NONE;
	spacing OHSpacing_HORIZONTAL_3P_52;
}

// L_300084683_LineConfig
object line_configuration {
	name L_300084683_LineConfig;
	conductor_A OHCond_4_ACSR_I;
	conductor_B OHCond_4_ACSR_I;
	conductor_C OHCond_NONE;
	conductor_N OHCond_NONE;
	spacing OHSpacing_HORIZONTAL_2P_56;
}

// L_300084733_LineConfig
object line_configuration {
	name L_300084733_LineConfig;
	conductor_A OHCond_4_ACSR_I;
	conductor_B OHCond_4_ACSR_I;
	conductor_C OHCond_4_ACSR_I;
	conductor_N OHCond_NONE;
	spacing OHSpacing_HORIZONTAL_3P_52;
}

// L_300084691_LineConfig
object line_configuration {
	name L_300084691_LineConfig;
	conductor_A OHCond_4_ACSR_I;
	conductor_B OHCond_4_ACSR_I;
	conductor_C OHCond_NONE;
	conductor_N OHCond_NONE;
	spacing OHSpacing_HORIZONTAL_2P_52;
}

// L_300084851_LineConfig
object line_configuration {
	name L_300084851_LineConfig;
	conductor_A OHCond_6_CU_I;
	conductor_B OHCond_6_CU_I;
	conductor_C OHCond_NONE;
	conductor_N OHCond_NONE;
	spacing OHSpacing_HORIZONTAL_2P_56;
}

// L_300084723_LineConfig
object line_configuration {
	name L_300084723_LineConfig;
	conductor_A OHCond_4_ACSR_I;
	conductor_B OHCond_4_ACSR_I;
	conductor_C OHCond_4_ACSR_I;
	conductor_N OHCond_NONE;
	spacing OHSpacing_HORIZONTAL_3P_52;
}

// L_300085320_LineConfig
object line_configuration {
	name L_300085320_LineConfig;
	conductor_A OHCond_6_CU_I;
	conductor_B OHCond_6_CU_I;
	conductor_C OHCond_6_CU_I;
	conductor_N OHCond_NONE;
	spacing OHSpacing_HORIZONTAL_3P_52;
}

// L_300084843_LineConfig
object line_configuration {
	name L_300084843_LineConfig;
	conductor_A OHCond_397_AAC_I;
	conductor_B OHCond_397_AAC_I;
	conductor_C OHCond_397_AAC_I;
	conductor_N OHCond_NONE;
	spacing OHSpacing_HORIZONTAL_3P_52;
}

// L_300108979_LineConfig
object line_configuration {
	name L_300108979_LineConfig;
	conductor_A OHCond_715_AAC_I;
	conductor_B OHCond_715_AAC_I;
	conductor_C OHCond_715_AAC_I;
	conductor_N OHCond_NONE;
	spacing OHSpacing_HORIZONTAL_3P_52;
}

// L_300018431_LineConfig
object line_configuration {
	name L_300018431_LineConfig;
	conductor_A OHCond_4_ACSR_I;
	conductor_B OHCond_4_ACSR_I;
	conductor_C OHCond_NONE;
	conductor_N OHCond_NONE;
	spacing OHSpacing_HORIZONTAL_2P_56;
}

// L_300115283_LineConfig
object line_configuration {
	name L_300115283_LineConfig;
	conductor_A OHCond_397_AAC_I;
	conductor_B OHCond_397_AAC_I;
	conductor_C OHCond_397_AAC_I;
	conductor_N OHCond_NONE;
	spacing OHSpacing_HORIZONTAL_3P_52;
}

// L_300084752_LineConfig
object line_configuration {
	name L_300084752_LineConfig;
	conductor_A OHCond_4_CU_I;
	conductor_B OHCond_4_CU_I;
	conductor_C OHCond_4_CU_I;
	conductor_N OHCond_NONE;
	spacing OHSpacing_HORIZONTAL_3P_52;
}

// L_300084798_LineConfig
object line_configuration {
	name L_300084798_LineConfig;
	conductor_A OHCond_397_AAC_I;
	conductor_B OHCond_397_AAC_I;
	conductor_C OHCond_397_AAC_I;
	conductor_N OHCond_NONE;
	spacing OHSpacing_HORIZONTAL_3P_52;
}

// L_300084727_LineConfig
object line_configuration {
	name L_300084727_LineConfig;
	conductor_A OHCond_4_ACSR_I;
	conductor_B OHCond_4_ACSR_I;
	conductor_C OHCond_NONE;
	conductor_N OHCond_NONE;
	spacing OHSpacing_HORIZONTAL_2P_52;
}

// L_300085278_LineConfig
object line_configuration {
	name L_300085278_LineConfig;
	conductor_A OHCond_6_CU_I;
	conductor_B OHCond_6_CU_I;
	conductor_C OHCond_NONE;
	conductor_N OHCond_NONE;
	spacing OHSpacing_HORIZONTAL_2P_52;
}

// L_300110280_LineConfig
object line_configuration {
	name L_300110280_LineConfig;
	conductor_A OHCond_4_ACSR_I;
	conductor_B OHCond_4_ACSR_I;
	conductor_C OHCond_NONE;
	conductor_N OHCond_NONE;
	spacing OHSpacing_HORIZONTAL_2P_52;
}

// L_300052953_LineConfig
object line_configuration {
	name L_300052953_LineConfig;
	conductor_A OHCond_715_AAC_I;
	conductor_B OHCond_715_AAC_I;
	conductor_C OHCond_715_AAC_I;
	conductor_N OHCond_NONE;
	spacing OHSpacing_HORIZONTAL_3P_52;
}

// L_300005530_LineConfig
object line_configuration {
	name L_300005530_LineConfig;
	conductor_A OHCond_397_AAC_I;
	conductor_B OHCond_397_AAC_I;
	conductor_C OHCond_397_AAC_I;
	conductor_N OHCond_NONE;
	spacing OHSpacing_HORIZONTAL_3P_52;
}

// L_300084690_LineConfig
object line_configuration {
	name L_300084690_LineConfig;
	conductor_A OHCond_4/0_AAC_I;
	conductor_B OHCond_4/0_AAC_I;
	conductor_C OHCond_4/0_AAC_I;
	conductor_N OHCond_NONE;
	spacing OHSpacing_HORIZONTAL_3P_52;
}

// L_300084802_LineConfig
object line_configuration {
	name L_300084802_LineConfig;
	conductor_A OHCond_4_ACSR_I;
	conductor_B OHCond_4_ACSR_I;
	conductor_C OHCond_NONE;
	conductor_N OHCond_NONE;
	spacing OHSpacing_HORIZONTAL_2P_52;
}

// L_300084813_LineConfig
object line_configuration {
	name L_300084813_LineConfig;
	conductor_A OHCond_NONE;
	conductor_B OHCond_6_CU_I;
	conductor_C OHCond_6_CU_I;
	conductor_N OHCond_NONE;
	spacing OHSpacing_HORIZONTAL_2P_56;
}

// L_300027580_LineConfig
object line_configuration {
	name L_300027580_LineConfig;
	conductor_A OHCond_6_CU_I;
	conductor_B OHCond_6_CU_I;
	conductor_C OHCond_6_CU_I;
	conductor_N OHCond_NONE;
	spacing OHSpacing_HORIZONTAL_3P_52;
}

// L_300084693_LineConfig
object line_configuration {
	name L_300084693_LineConfig;
	conductor_A OHCond_4_ACSR_I;
	conductor_B OHCond_4_ACSR_I;
	conductor_C OHCond_4_ACSR_I;
	conductor_N OHCond_NONE;
	spacing OHSpacing_HORIZONTAL_3P_52;
}

// L_300011638_LineConfig
object line_configuration {
	name L_300011638_LineConfig;
	conductor_A OHCond_397_AAC_I;
	conductor_B OHCond_397_AAC_I;
	conductor_C OHCond_397_AAC_I;
	conductor_N OHCond_NONE;
	spacing OHSpacing_HORIZONTAL_3P_52;
}

// L_300084846_LineConfig
object line_configuration {
	name L_300084846_LineConfig;
	conductor_A OHCond_6_CU_I;
	conductor_B OHCond_6_CU_I;
	conductor_C OHCond_NONE;
	conductor_N OHCond_NONE;
	spacing OHSpacing_HORIZONTAL_2P_56;
}

// L_300084971_LineConfig
object line_configuration {
	name L_300084971_LineConfig;
	conductor_A OHCond_6_CU_I;
	conductor_B OHCond_6_CU_I;
	conductor_C OHCond_NONE;
	conductor_N OHCond_NONE;
	spacing OHSpacing_HORIZONTAL_2P_56;
}

// L_300084781_LineConfig
object line_configuration {
	name L_300084781_LineConfig;
	conductor_A OHCond_397_AAC_I;
	conductor_B OHCond_397_AAC_I;
	conductor_C OHCond_397_AAC_I;
	conductor_N OHCond_NONE;
	spacing OHSpacing_HORIZONTAL_3P_52;
}

// L_300120811_LineConfig
object line_configuration {
	name L_300120811_LineConfig;
	conductor_A OHCond_715_AAC_I;
	conductor_B OHCond_715_AAC_I;
	conductor_C OHCond_715_AAC_I;
	conductor_N OHCond_NONE;
	spacing OHSpacing_HORIZONTAL_3P_52;
}

// L_300005524_LineConfig
object line_configuration {
	name L_300005524_LineConfig;
	conductor_A OHCond_6_CU_I;
	conductor_B OHCond_6_CU_I;
	conductor_C OHCond_6_CU_I;
	conductor_N OHCond_NONE;
	spacing OHSpacing_HORIZONTAL_3P_52;
}

// L_300084720_LineConfig
object line_configuration {
	name L_300084720_LineConfig;
	conductor_A OHCond_4_ACSR_I;
	conductor_B OHCond_4_ACSR_I;
	conductor_C OHCond_4_ACSR_I;
	conductor_N OHCond_NONE;
	spacing OHSpacing_HORIZONTAL_3P_52;
}

// L_300084692_LineConfig
object line_configuration {
	name L_300084692_LineConfig;
	conductor_A OHCond_4_ACSR_I;
	conductor_B OHCond_4_ACSR_I;
	conductor_C OHCond_NONE;
	conductor_N OHCond_NONE;
	spacing OHSpacing_HORIZONTAL_2P_52;
}

// L_300084807_LineConfig
object line_configuration {
	name L_300084807_LineConfig;
	conductor_A OHCond_NONE;
	conductor_B OHCond_6_CU_I;
	conductor_C OHCond_6_CU_I;
	conductor_N OHCond_NONE;
	spacing OHSpacing_HORIZONTAL_2P_56;
}

// L_300018425_LineConfig
object line_configuration {
	name L_300018425_LineConfig;
	conductor_A OHCond_4_ACSR_I;
	conductor_B OHCond_4_ACSR_I;
	conductor_C OHCond_NONE;
	conductor_N OHCond_NONE;
	spacing OHSpacing_HORIZONTAL_2P_56;
}

// L_300084974_LineConfig
object line_configuration {
	name L_300084974_LineConfig;
	conductor_A OHCond_6_CU_I;
	conductor_B OHCond_6_CU_I;
	conductor_C OHCond_NONE;
	conductor_N OHCond_NONE;
	spacing OHSpacing_HORIZONTAL_2P_56;
}

// L_300085279_LineConfig
object line_configuration {
	name L_300085279_LineConfig;
	conductor_A OHCond_6_CU_I;
	conductor_B OHCond_6_CU_I;
	conductor_C OHCond_6_CU_I;
	conductor_N OHCond_NONE;
	spacing OHSpacing_HORIZONTAL_3P_52;
}

// L_300085277_LineConfig
object line_configuration {
	name L_300085277_LineConfig;
	conductor_A OHCond_6_CU_I;
	conductor_B OHCond_6_CU_I;
	conductor_C OHCond_6_CU_I;
	conductor_N OHCond_NONE;
	spacing OHSpacing_HORIZONTAL_3P_52;
}

// L_300015041_LineConfig
object line_configuration {
	name L_300015041_LineConfig;
	conductor_A OHCond_397_AAC_I;
	conductor_B OHCond_397_AAC_I;
	conductor_C OHCond_397_AAC_I;
	conductor_N OHCond_NONE;
	spacing OHSpacing_HORIZONTAL_3P_52;
}

// L_300085321_LineConfig
object line_configuration {
	name L_300085321_LineConfig;
	conductor_A OHCond_715_AAC_I;
	conductor_B OHCond_715_AAC_I;
	conductor_C OHCond_715_AAC_I;
	conductor_N OHCond_NONE;
	spacing OHSpacing_HORIZONTAL_3P_52;
}

// L_300084854_LineConfig
object line_configuration {
	name L_300084854_LineConfig;
	conductor_A OHCond_6_CU_I;
	conductor_B OHCond_6_CU_I;
	conductor_C OHCond_NONE;
	conductor_N OHCond_NONE;
	spacing OHSpacing_HORIZONTAL_2P_56;
}

// L_300015125_LineConfig
object line_configuration {
	name L_300015125_LineConfig;
	conductor_A OHCond_715_AAC_I;
	conductor_B OHCond_715_AAC_I;
	conductor_C OHCond_715_AAC_I;
	conductor_N OHCond_NONE;
	spacing OHSpacing_HORIZONTAL_3P_52;
}

// L_300015048_LineConfig
object line_configuration {
	name L_300015048_LineConfig;
	conductor_A OHCond_397_AAC_I;
	conductor_B OHCond_397_AAC_I;
	conductor_C OHCond_397_AAC_I;
	conductor_N OHCond_NONE;
	spacing OHSpacing_HORIZONTAL_3P_52;
}

// L_300018426_LineConfig
object line_configuration {
	name L_300018426_LineConfig;
	conductor_A OHCond_4_ACSR_I;
	conductor_B OHCond_4_ACSR_I;
	conductor_C OHCond_NONE;
	conductor_N OHCond_NONE;
	spacing OHSpacing_HORIZONTAL_2P_56;
}

// L_300084787_LineConfig
object line_configuration {
	name L_300084787_LineConfig;
	conductor_A OHCond_4_ACSR_I;
	conductor_B OHCond_4_ACSR_I;
	conductor_C OHCond_NONE;
	conductor_N OHCond_NONE;
	spacing OHSpacing_HORIZONTAL_2P_56;
}

// L_300084786_LineConfig
object line_configuration {
	name L_300084786_LineConfig;
	conductor_A OHCond_4_ACSR_I;
	conductor_B OHCond_4_ACSR_I;
	conductor_C OHCond_4_ACSR_I;
	conductor_N OHCond_NONE;
	spacing OHSpacing_HORIZONTAL_3P_52;
}

// L_300029190_LineConfig
object line_configuration {
	name L_300029190_LineConfig;
	conductor_A OHCond_397_AAC_I;
	conductor_B OHCond_397_AAC_I;
	conductor_C OHCond_397_AAC_I;
	conductor_N OHCond_NONE;
	spacing OHSpacing_HORIZONTAL_3P_52;
}

// L_300084844_LineConfig
object line_configuration {
	name L_300084844_LineConfig;
	conductor_A OHCond_715_AAC_I;
	conductor_B OHCond_715_AAC_I;
	conductor_C OHCond_715_AAC_I;
	conductor_N OHCond_NONE;
	spacing OHSpacing_HORIZONTAL_3P_52;
}

// L_300005526_LineConfig
object line_configuration {
	name L_300005526_LineConfig;
	conductor_A OHCond_397_AAC_I;
	conductor_B OHCond_397_AAC_I;
	conductor_C OHCond_397_AAC_I;
	conductor_N OHCond_NONE;
	spacing OHSpacing_HORIZONTAL_3P_52;
}

// L_300084783_LineConfig
object line_configuration {
	name L_300084783_LineConfig;
	conductor_A OHCond_397_AAC_I;
	conductor_B OHCond_397_AAC_I;
	conductor_C OHCond_397_AAC_I;
	conductor_N OHCond_NONE;
	spacing OHSpacing_HORIZONTAL_3P_52;
}

// L_300084740_LineConfig
object line_configuration {
	name L_300084740_LineConfig;
	conductor_A OHCond_4/0_AAC_I;
	conductor_B OHCond_4/0_AAC_I;
	conductor_C OHCond_4/0_AAC_I;
	conductor_N OHCond_NONE;
	spacing OHSpacing_HORIZONTAL_3P_52;
}

// L_300085322_LineConfig
object line_configuration {
	name L_300085322_LineConfig;
	conductor_A OHCond_715_AAC_I;
	conductor_B OHCond_715_AAC_I;
	conductor_C OHCond_715_AAC_I;
	conductor_N OHCond_NONE;
	spacing OHSpacing_HORIZONTAL_3P_52;
}

// L_300099158_LineConfig
object line_configuration {
	name L_300099158_LineConfig;
	conductor_A OHCond_4_ACSR_I;
	conductor_B OHCond_4_ACSR_I;
	conductor_C OHCond_4_ACSR_I;
	conductor_N OHCond_NONE;
	spacing OHSpacing_HORIZONTAL_3P_52;
}

// L_300036173_LineConfig
object line_configuration {
	name L_300036173_LineConfig;
	conductor_A OHCond_4_ACSR_I;
	conductor_B OHCond_4_ACSR_I;
	conductor_C OHCond_4_ACSR_I;
	conductor_N OHCond_NONE;
	spacing OHSpacing_HORIZONTAL_3P_52;
}

// L_300027581_LineConfig
object line_configuration {
	name L_300027581_LineConfig;
	conductor_A OHCond_6_CU_I;
	conductor_B OHCond_6_CU_I;
	conductor_C OHCond_6_CU_I;
	conductor_N OHCond_NONE;
	spacing OHSpacing_HORIZONTAL_3P_52;
}

// L_300084848_LineConfig
object line_configuration {
	name L_300084848_LineConfig;
	conductor_A OHCond_6_CU_I;
	conductor_B OHCond_6_CU_I;
	conductor_C OHCond_NONE;
	conductor_N OHCond_NONE;
	spacing OHSpacing_HORIZONTAL_2P_56;
}

// L_300084801_LineConfig
object line_configuration {
	name L_300084801_LineConfig;
	conductor_A OHCond_2_ACSR_I;
	conductor_B OHCond_2_ACSR_I;
	conductor_C OHCond_2_ACSR_I;
	conductor_N OHCond_NONE;
	spacing OHSpacing_HORIZONTAL_3P_52;
}

// L_300013875_LineConfig
object line_configuration {
	name L_300013875_LineConfig;
	conductor_A OHCond_4/0_AAC_I;
	conductor_B OHCond_4/0_AAC_I;
	conductor_C OHCond_4/0_AAC_I;
	conductor_N OHCond_NONE;
	spacing OHSpacing_HORIZONTAL_3P_52;
}

// L_300018428_LineConfig
object line_configuration {
	name L_300018428_LineConfig;
	conductor_A OHCond_397_AAC_I;
	conductor_B OHCond_397_AAC_I;
	conductor_C OHCond_397_AAC_I;
	conductor_N OHCond_NONE;
	spacing OHSpacing_HORIZONTAL_3P_52;
}

// L_300015633_LineConfig
object line_configuration {
	name L_300015633_LineConfig;
	conductor_A OHCond_6_CU_I;
	conductor_B OHCond_6_CU_I;
	conductor_C OHCond_NONE;
	conductor_N OHCond_NONE;
	spacing OHSpacing_HORIZONTAL_2P_52;
}

// L_300015035_LineConfig
object line_configuration {
	name L_300015035_LineConfig;
	conductor_A OHCond_4_ACSR_I;
	conductor_B OHCond_4_ACSR_I;
	conductor_C OHCond_4_ACSR_I;
	conductor_N OHCond_NONE;
	spacing OHSpacing_HORIZONTAL_3P_52;
}

// L_300084841_LineConfig
object line_configuration {
	name L_300084841_LineConfig;
	conductor_A OHCond_6_CU_I;
	conductor_B OHCond_6_CU_I;
	conductor_C OHCond_NONE;
	conductor_N OHCond_NONE;
	spacing OHSpacing_HORIZONTAL_2P_56;
}

// L_300084689_LineConfig
object line_configuration {
	name L_300084689_LineConfig;
	conductor_A OHCond_4_ACSR_I;
	conductor_B OHCond_4_ACSR_I;
	conductor_C OHCond_NONE;
	conductor_N OHCond_NONE;
	spacing OHSpacing_HORIZONTAL_2P_52;
}

// L_300013991_LineConfig
object line_configuration {
	name L_300013991_LineConfig;
	conductor_A OHCond_4/0_AAC_I;
	conductor_B OHCond_4/0_AAC_I;
	conductor_C OHCond_4/0_AAC_I;
	conductor_N OHCond_NONE;
	spacing OHSpacing_HORIZONTAL_3P_52;
}

// L_300084719_LineConfig
object line_configuration {
	name L_300084719_LineConfig;
	conductor_A OHCond_4_ACSR_I;
	conductor_B OHCond_4_ACSR_I;
	conductor_C OHCond_NONE;
	conductor_N OHCond_NONE;
	spacing OHSpacing_HORIZONTAL_2P_56;
}

// L_300085323_LineConfig
object line_configuration {
	name L_300085323_LineConfig;
	conductor_A OHCond_4/0_AAC_I;
	conductor_B OHCond_4/0_AAC_I;
	conductor_C OHCond_4/0_AAC_I;
	conductor_N OHCond_NONE;
	spacing OHSpacing_HORIZONTAL_3P_52;
}

// L_300084814_LineConfig
object line_configuration {
	name L_300084814_LineConfig;
	conductor_A OHCond_NONE;
	conductor_B OHCond_6_CU_I;
	conductor_C OHCond_6_CU_I;
	conductor_N OHCond_NONE;
	spacing OHSpacing_HORIZONTAL_2P_56;
}

// L_300084751_LineConfig
object line_configuration {
	name L_300084751_LineConfig;
	conductor_A OHCond_4/0_AAC_I;
	conductor_B OHCond_4/0_AAC_I;
	conductor_C OHCond_4/0_AAC_I;
	conductor_N OHCond_NONE;
	spacing OHSpacing_HORIZONTAL_3P_52;
}

// L_300009874_LineConfig
object line_configuration {
	name L_300009874_LineConfig;
	conductor_A OHCond_397_AAC_I;
	conductor_B OHCond_397_AAC_I;
	conductor_C OHCond_397_AAC_I;
	conductor_N OHCond_NONE;
	spacing OHSpacing_TRIANGULAR_3P_52;
}

// L_300053740_LineConfig
object line_configuration {
	name L_300053740_LineConfig;
	conductor_A OHCond_397_AAC_I;
	conductor_B OHCond_397_AAC_I;
	conductor_C OHCond_397_AAC_I;
	conductor_N OHCond_NONE;
	spacing OHSpacing_HORIZONTAL_3P_52;
}

// L_300084729_LineConfig
object line_configuration {
	name L_300084729_LineConfig;
	conductor_A OHCond_4/0_AAC_I;
	conductor_B OHCond_4/0_AAC_I;
	conductor_C OHCond_4/0_AAC_I;
	conductor_N OHCond_NONE;
	spacing OHSpacing_HORIZONTAL_3P_52;
}

// L_300084969_LineConfig
object line_configuration {
	name L_300084969_LineConfig;
	conductor_A OHCond_6_CU_I;
	conductor_B OHCond_6_CU_I;
	conductor_C OHCond_NONE;
	conductor_N OHCond_NONE;
	spacing OHSpacing_HORIZONTAL_2P_52;
}

// L_300099159_LineConfig
object line_configuration {
	name L_300099159_LineConfig;
	conductor_A OHCond_397_AAC_I;
	conductor_B OHCond_397_AAC_I;
	conductor_C OHCond_397_AAC_I;
	conductor_N OHCond_NONE;
	spacing OHSpacing_HORIZONTAL_3P_52;
}

// L_300084785_LineConfig
object line_configuration {
	name L_300084785_LineConfig;
	conductor_A OHCond_397_AAC_I;
	conductor_B OHCond_397_AAC_I;
	conductor_C OHCond_397_AAC_I;
	conductor_N OHCond_NONE;
	spacing OHSpacing_HORIZONTAL_3P_52;
}

// L_300009872_LineConfig
object line_configuration {
	name L_300009872_LineConfig;
	conductor_A OHCond_715_AAC_I;
	conductor_B OHCond_715_AAC_I;
	conductor_C OHCond_715_AAC_I;
	conductor_N OHCond_NONE;
	spacing OHSpacing_HORIZONTAL_3P_52;
}

// L_300084735_LineConfig
object line_configuration {
	name L_300084735_LineConfig;
	conductor_A OHCond_4/0_AAC_I;
	conductor_B OHCond_4/0_AAC_I;
	conductor_C OHCond_4/0_AAC_I;
	conductor_N OHCond_NONE;
	spacing OHSpacing_HORIZONTAL_3P_52;
}

// L_300015046_LineConfig
object line_configuration {
	name L_300015046_LineConfig;
	conductor_A OHCond_397_AAC_I;
	conductor_B OHCond_397_AAC_I;
	conductor_C OHCond_397_AAC_I;
	conductor_N OHCond_NONE;
	spacing OHSpacing_HORIZONTAL_3P_52;
}

// L_300012091_LineConfig
object line_configuration {
	name L_300012091_LineConfig;
	conductor_A OHCond_6_CU_I;
	conductor_B OHCond_6_CU_I;
	conductor_C OHCond_6_CU_I;
	conductor_N OHCond_NONE;
	spacing OHSpacing_HORIZONTAL_3P_52;
}

// L_300084805_LineConfig
object line_configuration {
	name L_300084805_LineConfig;
	conductor_A OHCond_NONE;
	conductor_B OHCond_6_CU_I;
	conductor_C OHCond_6_CU_I;
	conductor_N OHCond_NONE;
	spacing OHSpacing_HORIZONTAL_2P_56;
}

// L_300084685_LineConfig
object line_configuration {
	name L_300084685_LineConfig;
	conductor_A OHCond_4_ACSR_I;
	conductor_B OHCond_4_ACSR_I;
	conductor_C OHCond_4_ACSR_I;
	conductor_N OHCond_NONE;
	spacing OHSpacing_HORIZONTAL_3P_52;
}

// L_300084718_LineConfig
object line_configuration {
	name L_300084718_LineConfig;
	conductor_A OHCond_4_ACSR_I;
	conductor_B OHCond_4_ACSR_I;
	conductor_C OHCond_NONE;
	conductor_N OHCond_NONE;
	spacing OHSpacing_HORIZONTAL_2P_56;
}

// L_300099920_LineConfig
object line_configuration {
	name L_300099920_LineConfig;
	conductor_A OHCond_4_ACSR_I;
	conductor_B OHCond_4_ACSR_I;
	conductor_C OHCond_4_ACSR_I;
	conductor_N OHCond_NONE;
	spacing OHSpacing_HORIZONTAL_3P_52;
}

// L_300005531_LineConfig
object line_configuration {
	name L_300005531_LineConfig;
	conductor_A OHCond_397_AAC_I;
	conductor_B OHCond_397_AAC_I;
	conductor_C OHCond_397_AAC_I;
	conductor_N OHCond_NONE;
	spacing OHSpacing_HORIZONTAL_3P_52;
}

// L_300084839_LineConfig
object line_configuration {
	name L_300084839_LineConfig;
	conductor_A OHCond_715_AAC_I;
	conductor_B OHCond_715_AAC_I;
	conductor_C OHCond_715_AAC_I;
	conductor_N OHCond_NONE;
	spacing OHSpacing_HORIZONTAL_3P_52;
}

// L_300084779_LineConfig
object line_configuration {
	name L_300084779_LineConfig;
	conductor_A OHCond_6_CU_I;
	conductor_B OHCond_6_CU_I;
	conductor_C OHCond_NONE;
	conductor_N OHCond_NONE;
	spacing OHSpacing_HORIZONTAL_2P_52;
}

// L_300084736_LineConfig
object line_configuration {
	name L_300084736_LineConfig;
	conductor_A OHCond_4_ACSR_I;
	conductor_B OHCond_4_ACSR_I;
	conductor_C OHCond_4_ACSR_I;
...